REMARK  Name = ./temp/temporal_smile.pdbqt
REMARK  4 active torsions:
REMARK  status: ('A' for Active; 'I' for Inactive)
REMARK    1  A    between atoms: C_2  and  C_5
REMARK    2  A    between atoms: C_10  and  C_11
REMARK    3  A    between atoms: N_12  and  C_13
REMARK    4  A    between atoms: N_17  and  C_18
REMARK                            x       y       z     vdW  Elec       q    Type
REMARK                         _______ _______ _______ _____ _____    ______ ____
ROOT
ATOM      1  C   UNL A   1       0.592  -0.657   0.467  0.00  0.00    +0.034 A 
ATOM      2  C   UNL A   1      -0.302   0.218  -0.098  0.00  0.00    +0.034 A 
ATOM      3  C   UNL A   1      -1.628  -0.125  -0.204  0.00  0.00    +0.009 A 
ATOM      4  C   UNL A   1      -2.168  -1.310   0.224  0.00  0.00    +0.042 A 
ATOM      5  N   UNL A   1      -3.546  -1.442   0.161  0.00  0.00    -0.302 N 
ATOM      6  C   UNL A   1      -4.289  -2.668   0.582  0.00  0.00    +0.135 C 
ATOM      7  C   UNL A   1      -4.259  -0.338  -0.324  0.00  0.00    +0.043 C 
ATOM      8  C   UNL A   1      -5.535  -0.073  -0.300  0.00  0.00    +0.024 C 
ATOM      9  C   UNL A   1      -6.255   1.091  -0.812  0.00  0.00    +0.002 C 
ATOM     10  C   UNL A   1      -5.854   2.376  -0.823  0.00  0.00    +0.000 C 
ATOM     11  C   UNL A   1      -4.586   2.957  -0.325  0.00  0.00    +0.001 C 
ATOM     12  C   UNL A   1      -3.348   2.414  -0.356  0.00  0.00    +0.013 C 
ATOM     13  P   UNL A   1      -2.966   0.787  -1.044  0.00  0.00    -0.003 P 
ATOM     14  C   UNL A   1      -1.236  -2.202   0.799  0.00  0.00    +0.026 A 
ATOM     15  C   UNL A   1       0.087  -1.869   0.907  0.00  0.00    +0.025 A 
ENDROOT
BRANCH   1  17
ATOM     16  C   UNL A   1       2.979  -0.581  -0.310  0.00  0.00    +0.249 C 
ATOM     17  N   UNL A   1       1.967  -0.384   0.652  0.00  0.00    -0.281 N 
ATOM     18  O   UNL A   1       2.785  -1.021  -1.463  0.00  0.00    -0.270 OA
ATOM     19  H   UNL A   1       2.226   0.004   1.609  0.00  0.00    +0.155 HD
BRANCH  16  25
ATOM     20  C   UNL A   1       5.075   0.768  -0.478  0.00  0.00    +0.067 A 
ATOM     21  C   UNL A   1       6.355   0.975   0.012  0.00  0.00    +0.013 A 
ATOM     22  C   UNL A   1       6.885   0.219   1.019  0.00  0.00    +0.001 A 
ATOM     23  C   UNL A   1       6.146  -0.791   1.588  0.00  0.00    +0.001 A 
ATOM     24  C   UNL A   1       4.868  -1.022   1.122  0.00  0.00    +0.013 A 
ATOM     25  C   UNL A   1       4.347  -0.238   0.093  0.00  0.00    +0.049 A 
BRANCH  20  27
ATOM     26  F   UNL A   1       3.346   2.227  -1.093  0.00  0.00    -0.166 F 
ATOM     27  C   UNL A   1       4.496   1.599  -1.581  0.00  0.00    +0.418 C 
ATOM     28  F   UNL A   1       5.382   2.626  -1.883  0.00  0.00    -0.166 F 
ATOM     29  F   UNL A   1       4.134   0.838  -2.651  0.00  0.00    -0.166 F 
ENDBRANCH  20  27
ENDBRANCH  16  25
ENDBRANCH   1  17
TORSDOF 3
