REMARK  Name = ./temp/temporal_smile
REMARK  3 active torsions:
REMARK  status: ('A' for Active; 'I' for Inactive)
REMARK    1  A    between atoms: C_1  and  C_2
REMARK    2  A    between atoms: N_10  and  C_11
REMARK    3  A    between atoms: C_14  and  C_15
REMARK                            x       y       z     vdW  Elec       q    Type
REMARK                         _______ _______ _______ _____ _____    ______ ____
ROOT
ATOM      1  C   UNL A   1       2.150  -0.620   0.026  0.00  0.00    +0.388 C 
ATOM      2  N   UNL A   1       1.621  -1.616  -0.637  0.00  0.00    +0.042 NA
ATOM      3  C   UNL A   1       0.362  -1.362   0.018  0.00  0.00    +0.505 C 
ATOM      4  N   UNL A   1      -0.917  -1.974  -0.057  0.00  0.00    -0.186 N 
ATOM      5  N   UNL A   1       0.874  -0.395   0.661  0.00  0.00    +0.042 NA
ATOM      6  H   UNL A   1      -1.012  -2.999  -0.145  0.00  0.00    +0.253 HD
ENDROOT
BRANCH   4   7
ATOM      7  C   UNL A   1      -2.091  -1.173  -0.012  0.00  0.00    +0.093 A 
ATOM      8  C   UNL A   1      -2.074   0.199   0.091  0.00  0.00    +0.040 A 
ATOM      9  C   UNL A   1      -3.248   0.943   0.132  0.00  0.00    +0.006 A 
ATOM     10  C   UNL A   1      -4.473   0.313   0.070  0.00  0.00    -0.050 A 
ATOM     11  C   UNL A   1      -5.734   1.116   0.114  0.00  0.00    +0.044 C 
ATOM     12  C   UNL A   1      -4.516  -1.069  -0.035  0.00  0.00    +0.006 A 
ATOM     13  C   UNL A   1      -3.348  -1.767  -0.073  0.00  0.00    +0.040 A 
ENDBRANCH   4   7
BRANCH   1  14
ATOM     14  C   UNL A   1       3.447   0.036   0.133  0.00  0.00    +0.072 A 
ATOM     15  C   UNL A   1       3.663   1.100   0.963  0.00  0.00    +0.016 A 
ATOM     16  C   UNL A   1       4.902   1.705   1.046  0.00  0.00    +0.001 A 
ATOM     17  C   UNL A   1       5.969   1.247   0.285  0.00  0.00    +0.000 A 
ATOM     18  C   UNL A   1       5.729   0.173  -0.545  0.00  0.00    +0.001 A 
ATOM     19  C   UNL A   1       4.489  -0.442  -0.637  0.00  0.00    +0.016 A 
ENDBRANCH   1  14
TORSDOF 2
