REMARK  Name = ./temp/temporal_smile
REMARK  5 active torsions:
REMARK  status: ('A' for Active; 'I' for Inactive)
REMARK    1  A    between atoms: C_1  and  C_2
REMARK    2  A    between atoms: C_4  and  N_5
REMARK    3  A    between atoms: C_8  and  C_9
REMARK    4  A    between atoms: C_9  and  N_10
REMARK    5  A    between atoms: C_21  and  C_22
REMARK                            x       y       z     vdW  Elec       q    Type
REMARK                         _______ _______ _______ _____ _____    ______ ____
ROOT
ATOM      1  C   UNL A   1       3.033   0.022  -0.803  0.00  0.00    +0.385 C 
ATOM      2  N   UNL A   1       2.596   0.006  -1.990  0.00  0.00    +0.007 NA
ATOM      3  C   UNL A   1       1.270  -0.156  -2.433  0.00  0.00    +0.331 C 
ATOM      4  C   UNL A   1       0.243  -0.326  -1.571  0.00  0.00    +0.138 C 
ATOM      5  C   UNL A   1      -1.149  -0.523  -1.282  0.00  0.00    +0.041 C 
ATOM      6  C   UNL A   1      -0.894  -0.528   0.035  0.00  0.00    +0.040 C 
ATOM      7  S   UNL A   1       0.691  -0.322   0.136  0.00  0.00    +0.087 S 
ATOM      8  N   UNL A   1       2.090  -0.143   0.311  0.00  0.00    -0.001 NA
ENDROOT
BRANCH   1   9
ATOM      9  C   UNL A   1       4.432   0.199  -0.483  0.00  0.00    +0.074 A 
ATOM     10  C   UNL A   1       4.944   0.222   0.795  0.00  0.00    +0.035 A 
ATOM     11  C   UNL A   1       6.292   0.395   1.046  0.00  0.00    +0.053 A 
ATOM     12  C   UNL A   1       7.126   0.547  -0.040  0.00  0.00    +0.019 A 
ATOM     13  C   UNL A   1       6.677   0.534  -1.348  0.00  0.00    +0.002 A 
ATOM     14  C   UNL A   1       5.322   0.358  -1.531  0.00  0.00    +0.016 A 
BRANCH  11  15
ATOM     15  C   UNL A   1       6.791   0.412   2.407  0.00  0.00    +0.099 C 
ATOM     16  N   UNL A   1       7.194   0.445   3.484  0.00  0.00    -0.191 NA
ENDBRANCH  11  15
ENDBRANCH   1   9
BRANCH   3  17
ATOM     17  N   UNL A   1       0.995  -0.143  -3.843  0.00  0.00    -0.245 N 
ATOM     18  H   UNL A   1       1.560  -0.790  -4.446  0.00  0.00    +0.288 HD
ATOM     19  H   UNL A   1       0.264   0.485  -4.248  0.00  0.00    +0.288 HD
ENDBRANCH   3  17
BRANCH   6  20
ATOM     20  C   UNL A   1      -2.003  -0.711   1.117  0.00  0.00    +0.130 C 
BRANCH  20  21
ATOM     21  N   UNL A   1      -3.279  -0.839   0.488  0.00  0.00    -0.292 NA
ATOM     22  C   UNL A   1      -4.232  -1.136   1.555  0.00  0.00    +0.085 C 
ATOM     23  C   UNL A   1      -5.636  -0.982   1.087  0.00  0.00    +0.021 C 
ATOM     24  C   UNL A   1      -5.913   0.498   0.857  0.00  0.00    +0.078 C 
ATOM     25  C   UNL A   1      -4.639   1.232   0.567  0.00  0.00    +0.261 C 
ATOM     26  F   UNL A   1      -4.082   1.678   1.722  0.00  0.00    -0.204 F 
ATOM     27  F   UNL A   1      -4.954   2.300  -0.258  0.00  0.00    -0.204 F 
ATOM     28  C   UNL A   1      -3.668   0.371  -0.218  0.00  0.00    +0.160 C 
ENDBRANCH  20  21
ENDBRANCH   6  20
TORSDOF 5
